<?xml version="1.0" encoding="UTF-8"?>
<!DOCTYPE network SYSTEM "http://www.matsim.org/files/dtd/network_v2.dtd">
<network>

<!-- ====================================================================== -->

	<nodes>
		<node id="1012541239" x="468448.45047639054" y="5782748.881252866" >
		</node>
		<node id="1016496899" x="464398.7551361591" y="5758495.225728996" >
		</node>
		<node id="1065525249" x="473312.1860621371" y="5757886.869525759" >
		</node>
		<node id="1065763368" x="485785.5516466842" y="5777255.946602688" >
		</node>
		<node id="1065763375" x="481710.6074797208" y="5773318.46357899" >
		</node>
		<node id="1065763557" x="481697.0750659887" y="5773333.284210817" >
		</node>
		<node id="1065904122" x="492821.2084457835" y="5784490.138832828" >
		</node>
		<node id="1065904133" x="491303.70199235185" y="5784539.941965901" >
		</node>
		<node id="1065904168" x="500383.1942997375" y="5785464.171787364" >
		</node>
		<node id="1071554691" x="473982.92619317165" y="5761235.509420052" >
		</node>
		<node id="1079076195" x="464541.06029639865" y="5758746.821117317" >
		</node>
		<node id="1079076206" x="464531.3828123075" y="5758732.374704611" >
		</node>
		<node id="10940698725" x="483662.6713300739" y="5776569.336090685" >
		</node>
		<node id="1094651864" x="488021.2906094998" y="5710379.433861754" >
		</node>
		<node id="1094651872" x="488058.0678186953" y="5710354.290499722" >
		</node>
		<node id="1094651877" x="488036.8693377868" y="5710383.945785822" >
		</node>
		<node id="1094651879" x="488074.1929826652" y="5710358.189571574" >
		</node>
		<node id="1096913864" x="494980.3415424172" y="5707756.170526323" >
		</node>
		<node id="1097857837" x="463855.34345209197" y="5758368.402668877" >
		</node>
		<node id="1106954038" x="480402.2114490976" y="5784366.103339521" >
		</node>
		<node id="1106954171" x="480420.9535058096" y="5784154.895875838" >
		</node>
		<node id="1106954306" x="480575.6130598886" y="5784276.960640421" >
		</node>
		<node id="1106955006" x="479862.3989562599" y="5784142.485926105" >
		</node>
		<node id="1106955283" x="479942.467446165" y="5784174.995706617" >
		</node>
		<node id="1106955485" x="479862.1874179711" y="5784125.746933948" >
		</node>
		<node id="1106955572" x="480561.06490967394" y="5784264.693620169" >
		</node>
		<node id="1106955608" x="480437.16601281165" y="5784422.3467676975" >
		</node>
		<node id="1106955685" x="480446.7988900852" y="5784208.984173751" >
		</node>
		<node id="1106955916" x="480369.7883215807" y="5784362.594545717" >
		</node>
		<node id="11133550380" x="478853.8219289469" y="5783222.53635542" >
		</node>
		<node id="11133550381" x="478879.16207517777" y="5783249.145321474" >
		</node>
		<node id="11133550382" x="478863.1791548835" y="5783253.117574815" >
		</node>
		<node id="11133550383" x="478837.32075264835" y="5783226.800096355" >
		</node>
		<node id="1122341237" x="479975.89111347235" y="5722811.7261322895" >
		</node>
		<node id="1122341296" x="480171.7055251873" y="5722493.483187517" >
		</node>
		<node id="1122341352" x="479985.5650868435" y="5722817.749174783" >
		</node>
		<node id="1122341435" x="480170.7847781056" y="5722473.9236172" >
		</node>
		<node id="11251702124" x="479677.31681048917" y="5737334.617741204" >
		</node>
		<node id="11345202519" x="463068.1048312046" y="5783273.777937635" >
		</node>
		<node id="11516091761" x="479775.94638745626" y="5731399.679669496" >
		</node>
		<node id="11516093300" x="479548.7982034056" y="5731418.491536562" >
		</node>
		<node id="11516093303" x="479557.00986258604" y="5731420.337824225" >
		</node>
		<node id="1151743584" x="470415.00577655877" y="5756197.009966898" >
		</node>
		<node id="1151756666" x="470041.17587296973" y="5755705.251754466" >
		</node>
		<node id="11585351251" x="486696.4082833473" y="5711228.724100449" >
		</node>
		<node id="11585351252" x="488279.3425384477" y="5710209.651460577" >
		</node>
		<node id="11585351253" x="486689.9842327801" y="5711216.740860736" >
		</node>
		<node id="11720275507" x="475239.6695603007" y="5715352.201364867" >
		</node>
		<node id="1181474921" x="473530.9486316026" y="5760701.234676872" >
		</node>
		<node id="11940673563" x="468050.84033826273" y="5782724.243505428" >
		</node>
		<node id="11940673564" x="468061.7860949721" y="5782725.618958213" >
		</node>
		<node id="11940673565" x="468063.69759286486" y="5782714.628218306" >
		</node>
		<node id="11940673566" x="468052.75843274064" y="5782713.219349494" >
		</node>
		<node id="11940684173" x="467650.5374990484" y="5782658.477719288" >
		</node>
		<node id="11940684174" x="467643.00962181576" y="5782668.671058796" >
		</node>
		<node id="11940684177" x="467626.93819371803" y="5782666.451282026" >
		</node>
		<node id="11940684178" x="467634.6961202504" y="5782655.9004787225" >
		</node>
		<node id="1194297752" x="479216.48729569046" y="5739745.993558506" >
		</node>
		<node id="1194297754" x="479203.8193445838" y="5739741.975280121" >
		</node>
		<node id="1194297758" x="479219.1475305364" y="5739782.429596253" >
		</node>
		<node id="1194297760" x="479205.99688859284" y="5739778.368820302" >
		</node>
		<node id="1236307434" x="468069.44763187866" y="5754803.658886641" >
		</node>
		<node id="1236307444" x="468339.50634198776" y="5754847.144106366" >
		</node>
		<node id="1236327074" x="468054.4275569182" y="5754829.425626581" >
		</node>
		<node id="1236327076" x="467878.7117286103" y="5754809.585022501" >
		</node>
		<node id="12450844" x="509132.47071200755" y="5699945.982940648" >
		</node>
		<node id="12450857" x="508413.771762298" y="5701194.086107318" >
		</node>
		<node id="12450869" x="506907.3240915376" y="5702382.263139651" >
		</node>
		<node id="1296186259" x="464255.7991279664" y="5758133.513201867" >
		</node>
		<node id="1296186265" x="464279.4268949609" y="5758217.598613339" >
		</node>
		<node id="1296186312" x="464638.72303733055" y="5757986.549447471" >
		</node>
		<node id="1296186313" x="464783.850874887" y="5757944.437293514" >
		</node>
		<node id="1296186321" x="464443.2783132686" y="5758246.939358094" >
		</node>
		<node id="1296186337" x="464023.63052074" y="5758311.941510427" >
		</node>
		<node id="1296186388" x="464395.7127089597" y="5758097.2107834965" >
		</node>
		<node id="1296196825" x="464598.1187988785" y="5758903.902655903" >
		</node>
		<node id="1296196834" x="464677.2228411377" y="5758927.24530985" >
		</node>
		<node id="1334333972" x="464300.75793681893" y="5758283.192387137" >
		</node>
		<node id="1334333975" x="464265.390919368" y="5758036.777283161" >
		</node>
		<node id="1347277430" x="476861.8588181065" y="5782210.169613882" >
		</node>
		<node id="1347277433" x="476869.30467810074" y="5782163.574664795" >
		</node>
		<node id="135123350" x="479608.71558189223" y="5728359.859938408" >
		</node>
		<node id="135123358" x="479606.386439421" y="5728392.22288316" >
		</node>
		<node id="135123402" x="479751.65639763226" y="5728340.777357789" >
		</node>
		<node id="1360408565" x="476721.6378554901" y="5782025.475042003" >
		</node>
		<node id="1360408575" x="476720.2902807913" y="5782036.949015949" >
		</node>
		<node id="1360408592" x="476861.8243337507" y="5782060.701078663" >
		</node>
		<node id="1360408594" x="476871.5239735391" y="5782063.403159949" >
		</node>
		<node id="1360408605" x="476861.135154138" y="5782072.69471319" >
		</node>
		<node id="1360408610" x="476870.3891771689" y="5782075.131923866" >
		</node>
		<node id="1360408651" x="477319.7880646505" y="5782213.203350717" >
		</node>
		<node id="1371392545" x="484853.7569496794" y="5786504.0534800645" >
		</node>
		<node id="1371392558" x="484842.5554282728" y="5786510.672462262" >
		</node>
		<node id="1400878510" x="508738.71249263163" y="5700620.797824621" >
		</node>
		<node id="1400878515" x="508674.0566700698" y="5700685.4241802655" >
		</node>
		<node id="1400878521" x="508584.0927333103" y="5700860.86552458" >
		</node>
		<node id="1400878525" x="508544.48091899365" y="5700979.051448705" >
		</node>
		<node id="1423127717" x="478418.9681803467" y="5742926.786851903" >
		</node>
		<node id="1423127718" x="478435.17881198693" y="5742926.372413407" >
		</node>
		<node id="1438131350" x="478427.89247049094" y="5742935.179083074" >
		</node>
		<node id="14776374" x="480435.9334956155" y="5784354.213231398" >
		</node>
		<node id="14776379" x="480453.4818994757" y="5784158.77164937" >
		</node>
		<node id="14776380" x="480383.28096234804" y="5784146.202255082" >
		</node>
		<node id="14776381" x="480331.31538572034" y="5784139.868065123" >
		</node>
		<node id="14776384" x="480360.79527196626" y="5784257.2637043465" >
		</node>
		<node id="14776385" x="480412.3288637957" y="5784260.085093598" >
		</node>
		<node id="14776386" x="480468.42571993085" y="5784262.588710064" >
		</node>
		<node id="147818677" x="474271.83270086796" y="5781697.678791886" >
		</node>
		<node id="147818682" x="474268.68749111466" y="5781709.485361809" >
		</node>
		<node id="147818688" x="474187.0188837641" y="5781644.61856459" >
		</node>
		<node id="147818695" x="474181.4307021821" y="5781654.658248409" >
		</node>
		<node id="1485555085" x="469273.89456568164" y="5754674.2119481" >
		</node>
		<node id="1485555086" x="472920.2665342649" y="5757595.444545698" >
		</node>
		<node id="1532769967" x="486140.96061847854" y="5777474.435934005" >
		</node>
		<node id="1555712696" x="485049.46833636815" y="5777148.1832618285" >
		</node>
		<node id="1563586982" x="448354.6794706107" y="5769908.143367585" >
		</node>
		<node id="1563586983" x="448233.4077768741" y="5770047.155353449" >
		</node>
		<node id="1563587001" x="448175.3919679494" y="5769942.509469965" >
		</node>
		<node id="1563587002" x="448160.3981838612" y="5769973.6554101035" >
		</node>
		<node id="1563587003" x="448141.730345898" y="5770010.657219578" >
		</node>
		<node id="1563587017" x="448204.38131253235" y="5769958.114175574" >
		</node>
		<node id="1577438030" x="453929.92255119863" y="5768017.880924062" >
		</node>
		<node id="1577441962" x="454884.5286846114" y="5765560.666715939" >
		</node>
		<node id="1577452870" x="454728.1005694496" y="5767298.124803218" >
		</node>
		<node id="1577456820" x="448776.3807657477" y="5769474.590216971" >
		</node>
		<node id="1577464713" x="454874.82489948435" y="5765554.881566009" >
		</node>
		<node id="1577464726" x="454718.7955852382" y="5766478.713477638" >
		</node>
		<node id="1577464735" x="454717.58131972863" y="5767294.316194806" >
		</node>
		<node id="1577464739" x="453924.2005464289" y="5768007.822899737" >
		</node>
		<node id="1577464765" x="448766.97649059125" y="5769468.591386998" >
		</node>
		<node id="1578644713" x="460925.89036294876" y="5762157.175914453" >
		</node>
		<node id="1584019944" x="448506.0193618529" y="5769756.5208619675" >
		</node>
		<node id="1584831797" x="457933.5647192191" y="5763540.007003433" >
		</node>
		<node id="1584831830" x="457662.0642266224" y="5763658.572708312" >
		</node>
		<node id="1584831837" x="457442.1660620661" y="5763850.502635251" >
		</node>
		<node id="1584831840" x="457693.11508322763" y="5763635.907551237" >
		</node>
		<node id="1584831890" x="457947.3096543292" y="5763545.686157124" >
		</node>
		<node id="1584831897" x="457598.575443892" y="5763794.089370211" >
		</node>
		<node id="1584845581" x="460660.3243695789" y="5762207.413431086" >
		</node>
		<node id="1584845592" x="460537.2482467347" y="5762331.815716609" >
		</node>
		<node id="1584845606" x="461000.73067086685" y="5762156.479187747" >
		</node>
		<node id="1584845608" x="460593.487984866" y="5762323.674204903" >
		</node>
		<node id="1584845624" x="461167.4334078192" y="5761998.8697508555" >
		</node>
		<node id="1584845626" x="460966.5716413835" y="5762190.259431366" >
		</node>
		<node id="1584875153" x="454787.9179754186" y="5766297.780209796" >
		</node>
		<node id="1584875159" x="454489.29396903" y="5765925.760846781" >
		</node>
		<node id="1584875186" x="454702.16217183956" y="5765926.924865095" >
		</node>
		<node id="1584877506" x="454786.07977250643" y="5766287.1854432095" >
		</node>
		<node id="1584877533" x="454709.6770990485" y="5766375.673971316" >
		</node>
		<node id="1587102188" x="480150.541414086" y="5725799.975165874" >
		</node>
		<node id="1633887567" x="446033.13492616394" y="5742247.694152632" >
		</node>
		<node id="1633887587" x="446277.15060746635" y="5742316.709930964" >
		</node>
		<node id="1634669345" x="480460.6871288237" y="5721702.3017007625" >
		</node>
		<node id="1634669346" x="481295.29791534727" y="5717722.980890493" >
		</node>
		<node id="1634669347" x="480878.2067924412" y="5714372.464832581" >
		</node>
		<node id="1634669349" x="480210.74461872916" y="5725575.956717148" >
		</node>
		<node id="1634669356" x="480303.50258014427" y="5714023.656705249" >
		</node>
		<node id="1634669378" x="480408.4250111401" y="5714299.777899362" >
		</node>
		<node id="1634669391" x="480614.87668072095" y="5714428.517399249" >
		</node>
		<node id="1634669402" x="480767.7832270786" y="5714425.37676485" >
		</node>
		<node id="1634669414" x="480397.84892212384" y="5714498.08395289" >
		</node>
		<node id="1634669425" x="480564.48882428673" y="5714558.744411907" >
		</node>
		<node id="1634669447" x="480506.02294178563" y="5714639.901067461" >
		</node>
		<node id="1634669453" x="480586.4497308844" y="5714659.021747247" >
		</node>
		<node id="1634669473" x="480271.9275833789" y="5714729.3464210015" >
		</node>
		<node id="1634669499" x="479991.91852783295" y="5714892.675720553" >
		</node>
		<node id="1634669500" x="480750.04153021646" y="5714955.2337221205" >
		</node>
		<node id="1634669503" x="480912.3810672684" y="5715137.425658004" >
		</node>
		<node id="1634669523" x="481304.20500869834" y="5717506.053275054" >
		</node>
		<node id="1634669553" x="481175.75873968494" y="5717646.6622842485" >
		</node>
		<node id="1634669560" x="481150.0494636075" y="5717695.582080019" >
		</node>
		<node id="1634669563" x="481134.85566757777" y="5717723.142570848" >
		</node>
		<node id="1634669581" x="481466.75175276806" y="5717927.478235329" >
		</node>
		<node id="1634669585" x="481462.5832931184" y="5717935.033991658" >
		</node>
		<node id="1634669620" x="481288.8607346465" y="5718133.905920041" >
		</node>
		<node id="1634669681" x="480986.7830295852" y="5719524.1641802415" >
		</node>
		<node id="1634669752" x="480925.059033588" y="5719680.378442102" >
		</node>
		<node id="1634669756" x="480968.37681744166" y="5719691.526057863" >
		</node>
		<node id="1634669762" x="480925.259735905" y="5719783.164495051" >
		</node>
		<node id="1634669864" x="480899.25809060474" y="5719950.889009538" >
		</node>
		<node id="1634669937" x="480858.7387770327" y="5720011.099424999" >
		</node>
		<node id="1634669966" x="480299.73089608026" y="5721987.443019308" >
		</node>
		<node id="1634669979" x="480371.571563613" y="5722030.994371383" >
		</node>
		<node id="1634669986" x="480388.1742363885" y="5722014.369637363" >
		</node>
		<node id="1634670000" x="480373.939087157" y="5722059.846128974" >
		</node>
		<node id="1634670066" x="480200.1975275638" y="5725568.0237246165" >
		</node>
		<node id="1634670074" x="480162.57931698964" y="5725661.327732411" >
		</node>
		<node id="1634670097" x="480382.4313980296" y="5725772.1539774705" >
		</node>
		<node id="1634670110" x="480165.71223409957" y="5725830.522794046" >
		</node>
		<node id="1634670111" x="480236.2546459495" y="5725817.378200371" >
		</node>
		<node id="1634670115" x="480210.1017438213" y="5725856.429266402" >
		</node>
		<node id="1635648167" x="466824.00379746367" y="5754846.51180762" >
		</node>
		<node id="1635648172" x="466795.1790856665" y="5754866.890558017" >
		</node>
		<node id="1635648202" x="467034.83865942445" y="5754971.169824199" >
		</node>
		<node id="1635648233" x="466920.8494044025" y="5755036.455617411" >
		</node>
		<node id="1635648235" x="466900.13392806984" y="5755056.468714828" >
		</node>
		<node id="1636354083" x="479624.3217206427" y="5728211.820378932" >
		</node>
		<node id="1636515784" x="479329.70970451285" y="5732620.299095195" >
		</node>
		<node id="1642148099" x="506692.42943862913" y="5702494.934892051" >
		</node>
		<node id="1646767253" x="509716.9966754748" y="5699304.889803819" >
		</node>
		<node id="1646767269" x="492518.7067988865" y="5709266.885001839" >
		</node>
		<node id="1646767271" x="489545.1815766933" y="5709693.608229861" >
		</node>
		<node id="1646767302" x="487597.9501709361" y="5710686.113607289" >
		</node>
		<node id="1646767337" x="471501.30421907926" y="5716286.3990017995" >
		</node>
		<node id="1678368291" x="469038.571650719" y="5754767.446089949" >
		</node>
		<node id="1679280568" x="473776.2180696456" y="5760576.44685653" >
		</node>
		<node id="1679336406" x="474046.0528451278" y="5760486.001002393" >
		</node>
		<node id="16803173" x="479552.1102473729" y="5736802.13558627" >
		</node>
		<node id="16803174" x="479556.03505261114" y="5736824.0967442" >
		</node>
		<node id="16803181" x="479570.42958487995" y="5737689.621078208" >
		</node>
		<node id="16803232" x="478004.82067899004" y="5743462.147051943" >
		</node>
		<node id="16803249" x="477058.52171367104" y="5745220.384691049" >
		</node>
		<node id="16803259" x="476370.29548038304" y="5746421.308903626" >
		</node>
		<node id="16803260" x="476308.6882823932" y="5746532.67732096" >
		</node>
		<node id="16803269" x="475812.48749927746" y="5747561.930310908" >
		</node>
		<node id="16803662" x="474333.16099870333" y="5750422.637516585" >
		</node>
		<node id="16803666" x="474058.7784370867" y="5750754.885276654" >
		</node>
		<node id="16803680" x="473764.6714115126" y="5751859.47776497" >
		</node>
		<node id="16803696" x="472506.90603735397" y="5752712.51959943" >
		</node>
		<node id="16803702" x="472118.1701033276" y="5752696.696239612" >
		</node>
		<node id="16803715" x="471586.0688644418" y="5752842.990142239" >
		</node>
		<node id="16803722" x="471288.46406383364" y="5753032.591104557" >
		</node>
		<node id="16803761" x="469245.2124286729" y="5754697.167131998" >
		</node>
		<node id="16804661" x="468723.8155237722" y="5754825.473054597" >
		</node>
		<node id="16804667" x="468598.8183961111" y="5754838.4131791005" >
		</node>
		<node id="16805451" x="468192.3783712937" y="5754382.554974682" >
		</node>
		<node id="16805455" x="468052.40412106266" y="5754116.483929424" >
		</node>
		<node id="16805466" x="467483.2073425399" y="5752778.06195219" >
		</node>
		<node id="16805475" x="467081.7004675128" y="5752192.705464978" >
		</node>
		<node id="16805481" x="466604.68406847166" y="5751498.871972651" >
		</node>
		<node id="16805503" x="465226.0086666586" y="5750456.531692057" >
		</node>
		<node id="16805529" x="462983.6282342081" y="5749748.410391543" >
		</node>
		<node id="16805535" x="462278.64945573796" y="5749339.051927818" >
		</node>
		<node id="16806168" x="462117.37776051566" y="5749193.372543272" >
		</node>
		<node id="16806173" x="462486.55548780336" y="5749460.095304141" >
		</node>
		<node id="16806176" x="462617.4864738597" y="5749539.96677202" >
		</node>
		<node id="16806178" x="462851.588732627" y="5749666.913787689" >
		</node>
		<node id="16806231" x="466613.87255145214" y="5751479.0793473" >
		</node>
		<node id="16806241" x="467096.7637831961" y="5752184.5426051235" >
		</node>
		<node id="16806256" x="467856.47741900216" y="5753477.926549234" >
		</node>
		<node id="16806271" x="468251.85607166024" y="5754438.712961783" >
		</node>
		<node id="16806361" x="460996.6504450511" y="5747999.182568177" >
		</node>
		<node id="1711203005" x="473587.18966378993" y="5759820.589250446" >
		</node>
		<node id="1743110021" x="510012.9527897669" y="5699065.855626115" >
		</node>
		<node id="1743110037" x="509783.31574295793" y="5699262.333395969" >
		</node>
		<node id="1748167792" x="468726.1734973451" y="5754968.416176528" >
		</node>
		<node id="1748167809" x="468921.77749428974" y="5755034.421430208" >
		</node>
		<node id="1753689661" x="467660.7057241077" y="5716338.574669218" >
		</node>
		<node id="1753689669" x="466392.1416717289" y="5716252.053734466" >
		</node>
		<node id="1760111501" x="454753.26974304195" y="5765769.847339205" >
		</node>
		<node id="1793361773" x="489493.8593807991" y="5783302.911097014" >
		</node>
		<node id="1793361774" x="489176.0045894099" y="5783778.935311801" >
		</node>
		<node id="1812296816" x="464534.36187762127" y="5758078.962276126" >
		</node>
		<node id="1842468731" x="487748.6036653333" y="5786076.559057325" >
		</node>
		<node id="1842468732" x="487759.2014942342" y="5786077.989927998" >
		</node>
		<node id="1850330669" x="454605.4512464283" y="5765864.636696107" >
		</node>
		<node id="186078435" x="453221.52212333743" y="5745342.411385597" >
		</node>
		<node id="18636102" x="480555.5376080342" y="5714656.493336697" >
		</node>
		<node id="18636109" x="480598.2822496337" y="5714582.537509764" >
		</node>
		<node id="18638036" x="507489.6393735415" y="5702154.789179297" >
		</node>
		<node id="18638037" x="507494.30207432696" y="5701988.343622317" >
		</node>
		<node id="1882961671" x="478831.2652939109" y="5734319.893358964" >
		</node>
		<node id="1882961672" x="478819.1308145789" y="5734340.998314568" >
		</node>
		<node id="1882961673" x="478830.3740717441" y="5734359.079866445" >
		</node>
		<node id="1882961674" x="478818.37803071045" y="5734368.773084231" >
		</node>
		<node id="188455688" x="488277.2184942182" y="5782793.527901303" >
		</node>
		<node id="188455767" x="488258.76849945955" y="5782749.425554662" >
		</node>
		<node id="188455825" x="488292.8710522072" y="5782787.773835645" >
		</node>
		<node id="188455862" x="488274.88355274306" y="5782745.538951884" >
		</node>
		<node id="1892597473" x="473676.83696833975" y="5780882.625008134" >
		</node>
		<node id="1892597482" x="473673.5684420877" y="5780923.852604042" >
		</node>
		<node id="1892597500" x="473631.1014261958" y="5781023.505595262" >
		</node>
		<node id="1892597515" x="473306.74704805936" y="5781107.906039536" >
		</node>
		<node id="1892597956" x="476905.57547781646" y="5781919.559643745" >
		</node>
		<node id="1892611790" x="482093.7245173609" y="5775702.583936009" >
		</node>
		<node id="1892611798" x="482135.7411798456" y="5775724.121838296" >
		</node>
		<node id="1892617110" x="479090.09711981274" y="5770734.640968666" >
		</node>
		<node id="1892617111" x="479105.57082476676" y="5770749.847308868" >
		</node>
		<node id="189877144" x="481861.3119228215" y="5775641.273685568" >
		</node>
		<node id="189877155" x="481990.9646669454" y="5775665.894707251" >
		</node>
		<node id="189877199" x="481994.64157002605" y="5775694.533329565" >
		</node>
		<node id="189939118" x="482127.3476594786" y="5775719.8698074715" >
		</node>
		<node id="189939130" x="482136.60208292736" y="5775695.133116844" >
		</node>
		<node id="1911594022" x="463729.9652027766" y="5758444.812294455" >
		</node>
		<node id="1911594028" x="463738.38061701204" y="5758455.328902381" >
		</node>
		<node id="1911712158" x="467580.9690753484" y="5752934.322017816" >
		</node>
		<node id="1917904829" x="470035.6734525725" y="5755722.891665995" >
		</node>
		<node id="1917904896" x="470264.0539066512" y="5755880.257625742" >
		</node>
		<node id="1917904981" x="470446.51008887356" y="5756055.678943962" >
		</node>
		<node id="1917904987" x="470437.9044693995" y="5756071.679502702" >
		</node>
		<node id="192373867" x="488416.04050165776" y="5783127.016203663" >
		</node>
		<node id="192373871" x="488436.81204942573" y="5783136.210668839" >
		</node>
		<node id="192373877" x="488395.7885758789" y="5783077.067000588" >
		</node>
		<node id="192373884" x="488414.2678036765" y="5783082.084600585" >
		</node>
		<node id="1929143897" x="463171.5982944002" y="5758923.926862448" >
		</node>
		<node id="1929143966" x="463182.7298519827" y="5758930.151391255" >
		</node>
		<node id="1929143967" x="463150.7066971589" y="5758966.124878036" >
		</node>
		<node id="1929143974" x="463139.22827389557" y="5758960.359012589" >
		</node>
		<node id="1931765900" x="448083.2028247621" y="5770238.919048126" >
		</node>
		<node id="1950581659" x="464641.5958705281" y="5758904.851569488" >
		</node>
		<node id="1950581664" x="464599.07587452454" y="5758937.186104409" >
		</node>
		<node id="196184854" x="496996.8952204378" y="5784851.350332332" >
		</node>
		<node id="1965156507" x="461311.7776603338" y="5761851.305294636" >
		</node>
		<node id="1979299646" x="464811.49206622556" y="5757914.78971169" >
		</node>
		<node id="1999592063" x="496850.4202311572" y="5785026.11212146" >
		</node>
		<node id="1999592065" x="496874.1900742655" y="5785038.92153359" >
		</node>
		<node id="2000797491" x="476752.06238056923" y="5767514.3398394175" >
		</node>
		<node id="2000797498" x="476505.5458454761" y="5767618.224762545" >
		</node>
		<node id="2000797525" x="476763.2719233592" y="5768190.185377205" >
		</node>
		<node id="2008337094" x="448660.78002167965" y="5769574.812497701" >
		</node>
		<node id="2022937370" x="464265.1795643853" y="5758129.208355896" >
		</node>
		<node id="2022937372" x="464288.0929701672" y="5758213.321161097" >
		</node>
		<node id="2026179709" x="458255.2300063929" y="5763304.389804266" >
		</node>
		<node id="2026179711" x="458263.6395690061" y="5763316.220984871" >
		</node>
		<node id="2026179713" x="458207.8067887698" y="5763338.4449653495" >
		</node>
		<node id="2026179715" x="458216.37889431615" y="5763350.8308532415" >
		</node>
		<node id="2026491017" x="458103.0969200727" y="5763415.059589873" >
		</node>
		<node id="2026503368" x="457750.32815455354" y="5763729.478388753" >
		</node>
		<node id="2026503380" x="457721.1247122257" y="5763753.095234268" >
		</node>
		<node id="2026534077" x="448373.9766678784" y="5769903.215734218" >
		</node>
		<node id="203893823" x="453614.0019302048" y="5744853.091152896" >
		</node>
		<node id="203927651" x="453232.4718488841" y="5745343.755265248" >
		</node>
		<node id="206189303" x="453939.2309343404" y="5745417.556528186" >
		</node>
		<node id="206190002" x="453376.697312905" y="5745158.820145714" >
		</node>
		<node id="206190004" x="453472.7389822278" y="5745034.810513697" >
		</node>
		<node id="206190222" x="453462.61706635426" y="5745029.954747016" >
		</node>
		<node id="206190223" x="453603.1609240686" y="5744847.963678919" >
		</node>
		<node id="2069810419" x="480338.0680144631" y="5722017.733991083" >
		</node>
		<node id="2069810420" x="480457.28125512396" y="5722108.125280889" >
		</node>
		<node id="207558979" x="476933.9960311445" y="5782093.221630933" >
		</node>
		<node id="207558994" x="476967.70796066604" y="5781976.008189327" >
		</node>
		<node id="207559154" x="476911.8273067715" y="5782074.404877276" >
		</node>
		<node id="207559158" x="476924.738082103" y="5781957.732968181" >
		</node>
		<node id="2082217566" x="476905.94714654156" y="5768689.894222476" >
		</node>
		<node id="2082217695" x="477326.09045209165" y="5769377.09770352" >
		</node>
		<node id="2082225518" x="474942.11218110967" y="5763364.548362224" >
		</node>
		<node id="2083467735" x="463830.78806301364" y="5758400.936339612" >
		</node>
		<node id="20923657" x="477929.9646943324" y="5782506.972769282" >
		</node>
		<node id="20923682" x="470979.90405156685" y="5782257.140020837" >
		</node>
		<node id="20923704" x="489569.26184950373" y="5783954.609322986" >
		</node>
		<node id="20923710" x="501051.9814904912" y="5785662.141588716" >
		</node>
		<node id="20923724" x="477987.63370497583" y="5782540.051457589" >
		</node>
		<node id="20923837" x="489091.0144103872" y="5783779.62222091" >
		</node>
		<node id="20923859" x="488247.9786560902" y="5785147.710932903" >
		</node>
		<node id="20923864" x="478396.0595319373" y="5782817.137125353" >
		</node>
		<node id="20923907" x="488106.7526674541" y="5785288.361517833" >
		</node>
		<node id="20923927" x="476890.32686980156" y="5782068.465351224" >
		</node>
		<node id="20923938" x="490095.816363768" y="5784233.342891965" >
		</node>
		<node id="20923945" x="488315.8140681665" y="5785148.351274872" >
		</node>
		<node id="20923997" x="477109.50127262523" y="5782135.764994713" >
		</node>
		<node id="20924001" x="489158.2049185377" y="5783761.255741629" >
		</node>
		<node id="20924010" x="498761.8247377351" y="5785153.176481367" >
		</node>
		<node id="20924032" x="473396.7199723219" y="5780984.781687919" >
		</node>
		<node id="20924047" x="470464.4109928368" y="5782500.384834061" >
		</node>
		<node id="20924071" x="489708.93679832265" y="5784015.948205979" >
		</node>
		<node id="20924076" x="469098.3065097155" y="5782657.4605523115" >
		</node>
		<node id="20924078" x="477613.0676243419" y="5782338.436956291" >
		</node>
		<node id="20924110" x="473499.2043370986" y="5781047.255241627" >
		</node>
		<node id="20924129" x="470543.38587828627" y="5782469.449110717" >
		</node>
		<node id="20924142" x="495786.9341498825" y="5784656.30541522" >
		</node>
		<node id="20924153" x="477704.9452434177" y="5782383.20382105" >
		</node>
		<node id="20924164" x="499069.2636176729" y="5785149.238466559" >
		</node>
		<node id="20924171" x="470942.95667072455" y="5782277.29989459" >
		</node>
		<node id="20924175" x="447970.4209262772" y="5770368.438803151" >
		</node>
		<node id="20924202" x="495649.6843613361" y="5784604.236368829" >
		</node>
		<node id="20924211" x="488748.4329803961" y="5784602.224230741" >
		</node>
		<node id="20924243" x="476197.61502688087" y="5781936.633479447" >
		</node>
		<node id="20924281" x="469267.5469184169" y="5782746.304415915" >
		</node>
		<node id="20924312" x="479475.70200883015" y="5783886.1566201495" >
		</node>
		<node id="20924314" x="476256.3980264182" y="5781942.958589878" >
		</node>
		<node id="20924434" x="500060.99833416956" y="5785409.656103514" >
		</node>
		<node id="20924455" x="502638.50124452484" y="5785531.128911826" >
		</node>
		<node id="20924461" x="480036.9674544791" y="5784192.410546378" >
		</node>