<?xml version="1.0" ?> 
<!DOCTYPE plans SYSTEM "http://www.matsim.org/files/dtd/plans_v4.dtd"> 
<plans xml:lang="de">
	<person id="0">
		<plan>
			<act type="h" x="479694.56306937843" y="5727756.463803191" end_time="6:00"/>
			<act type="h" x="451920.01628919167" y="5744282.508075686" end_time="16:00"/>
			<act type="h" x="478837.32075264835" y="5783226.800096355"/>
		</plan>
	</person>
	<person id="1">
		<plan>
			<act type="h" x="479849.00976815075" y="5731432.263389543" end_time="6:00"/>
			<act type="h" x="495171.7178464984" y="5784423.479378052" end_time="16:00"/>
			<act type="h" x="478853.8219289469" y="5783222.53635542"/>
		</plan>
	</person>
	<person id="2">
		<plan>
			<act type="h" x="464945.62748341815" y="5757852.505343698" end_time="6:00"/>
			<act type="h" x="484763.96241670154" y="5776832.389495834" end_time="16:00"/>
			<act type="h" x="476924.738082103" y="5781957.732968181"/>
		</plan>
	</person>
	<person id="3">
		<plan>
			<act type="h" x="460660.3243695789" y="5762207.413431086" end_time="6:00"/>
			<act type="h" x="507497.7616631656" y="5702204.802495171" end_time="16:00"/>
			<act type="h" x="495786.9341498825" y="5784656.30541522"/>
		</plan>
	</person>
	<person id="4">
		<plan>
			<act type="h" x="470979.90405156685" y="5782257.140020837" end_time="6:00"/>
			<act type="h" x="482127.3476594786" y="5775719.8698074715" end_time="16:00"/>
			<act type="h" x="471528.5371530929" y="5756880.573025974"/>
		</plan>
	</person>
	<person id="5">
		<plan>
			<act type="h" x="479481.2691513239" y="5737295.819250141" end_time="6:00"/>
			<act type="h" x="479975.89111347235" y="5722811.7261322895" end_time="16:00"/>
			<act type="h" x="463830.78806301364" y="5758400.936339612"/>
		</plan>
	</person>
	<person id="6">
		<plan>
			<act type="h" x="480906.9040920782" y="5772491.8156009335" end_time="6:00"/>
			<act type="h" x="481295.29791534727" y="5717722.980890493" end_time="16:00"/>
			<act type="h" x="481697.0750659887" y="5773333.284210817"/>
		</plan>
	</person>
	<person id="7">
		<plan>
			<act type="h" x="473909.4991054836" y="5760878.492486964" end_time="6:00"/>
			<act type="h" x="469098.3065097155" y="5782657.4605523115" end_time="16:00"/>
			<act type="h" x="474638.8060075925" y="5762482.661896759"/>
		</plan>
	</person>
	<person id="8">
		<plan>
			<act type="h" x="468733.52649560006" y="5782758.787337095" end_time="6:00"/>
			<act type="h" x="496832.62679199287" y="5784936.163097077" end_time="16:00"/>
			<act type="h" x="477319.7880646505" y="5782213.203350717"/>
		</plan>
	</person>
	<person id="9">
		<plan>
			<act type="h" x="464945.62748341815" y="5757852.505343698" end_time="6:00"/>
			<act type="h" x="507497.7616631656" y="5702204.802495171" end_time="16:00"/>
			<act type="h" x="481830.7766996755" y="5713412.447022242"/>
		</plan>
	</person>
</plans>