<?xml version="1.0" ?> 
 <!DOCTYPE plans SYSTEM "http://www.matsim.org/files/dtd/plans_v4.dtd"> 
 <plans xml:lang="de-CH"> 
<?xml version="1.0" ?>
<person id="0">
    <plan>
        <act type="h" x="484853.7569496794" y="5786504.0534800645" end_time="6:00"/>
        <act type="h" x="468935.34193141875" y="5754752.648106022" end_time="16:00"/>
        <act type="h" x="473499.2043370986" y="5781047.255241627"/>
    </plan>
</person>
<?xml version="1.0" ?>
<person id="1">
    <plan>
        <act type="h" x="485785.5516466842" y="5777255.946602688" end_time="6:00"/>
        <act type="h" x="473732.1311173725" y="5760233.081719433" end_time="16:00"/>
        <act type="h" x="466129.7137756007" y="5716325.16036333"/>
    </plan>
</person>
<?xml version="1.0" ?>
<person id="2">
    <plan>
        <act type="h" x="488579.3110971395" y="5710051.309607833" end_time="6:00"/>
        <act type="h" x="467995.00844695244" y="5754801.398515939" end_time="16:00"/>
        <act type="h" x="492352.2764193701" y="5709340.645633697"/>
    </plan>
</person>
<?xml version="1.0" ?>
<person id="3">
    <plan>
        <act type="h" x="469094.7125850482" y="5782860.53332824" end_time="6:00"/>
        <act type="h" x="489048.74425138586" y="5709827.656649597" end_time="16:00"/>
        <act type="h" x="480575.6130598886" y="5784276.960640421"/>
    </plan>
</person>
<?xml version="1.0" ?>
<person id="4">
    <plan>
        <act type="h" x="453232.4718488841" y="5745343.755265248" end_time="6:00"/>
        <act type="h" x="473434.7628375248" y="5781021.261025935" end_time="16:00"/>
        <act type="h" x="490095.816363768" y="5784233.342891965"/>
    </plan>
</person>
<?xml version="1.0" ?>
<person id="5">
    <plan>
        <act type="h" x="480931.0332496977" y="5784227.006541039" end_time="6:00"/>
        <act type="h" x="477963.61963715457" y="5782543.005598051" end_time="16:00"/>
        <act type="h" x="480212.793850685" y="5714793.915649862"/>
    </plan>
</person>
<?xml version="1.0" ?>
<person id="6">
    <plan>
        <act type="h" x="491003.59816285875" y="5784552.668381638" end_time="6:00"/>
        <act type="h" x="464114.43487344484" y="5783097.364233292" end_time="16:00"/>
        <act type="h" x="488316.38311648177" y="5785085.484179022"/>
    </plan>
</person>
<?xml version="1.0" ?>
<person id="7">
    <plan>
        <act type="h" x="468733.52649560006" y="5782758.787337095" end_time="6:00"/>
        <act type="h" x="476763.2719233592" y="5768190.185377205" end_time="16:00"/>
        <act type="h" x="496974.28707155853" y="5706133.196444344"/>
    </plan>
</person>
<?xml version="1.0" ?>
<person id="8">
    <plan>
        <act type="h" x="481990.9646669454" y="5775665.894707251" end_time="6:00"/>
        <act type="h" x="474268.68749111466" y="5781709.485361809" end_time="16:00"/>
        <act type="h" x="469267.5469184169" y="5782746.304415915"/>
    </plan>
</person>
<?xml version="1.0" ?>
<person id="9">
    <plan>
        <act type="h" x="454753.26974304195" y="5765769.847339205" end_time="6:00"/>
        <act type="h" x="485996.9427332387" y="5711474.190037111" end_time="16:00"/>
        <act type="h" x="490095.816363768" y="5784233.342891965"/>
    </plan>
</person>
