<?xml version="1.0" ?> 
<!DOCTYPE plans SYSTEM "http://www.matsim.org/files/dtd/plans_v4.dtd"> 
<plans xml:lang="de">
	<person id="0">
		<plan>
			<act type="h" x="457442.1660620661" y="5763850.502635251" end_time="6:00"/>
			<act type="w" x="479539.9923375873" y="5771396.512288468" end_time="16:00"/>
			<act type="h" x="464398.7551361591" y="5758495.225728996"/>
		</plan>
	</person>
	<person id="1">
		<plan>
			<act type="h" x="469156.45246326644" y="5782649.011982378" end_time="6:00"/>
			<act type="w" x="489064.291463347" y="5783957.90042687" end_time="16:00"/>
			<act type="h" x="476752.06238056923" y="5767514.3398394175"/>
		</plan>
	</person>
	<person id="2">
		<plan>
			<act type="h" x="500778.8559858878" y="5785550.686095834" end_time="6:00"/>
			<act type="w" x="466627.96379767853" y="5751532.295642264" end_time="16:00"/>
			<act type="h" x="480485.3320422239" y="5721551.440131669"/>
		</plan>
	</person>
	<person id="3">
		<plan>
			<act type="h" x="473137.3195297625" y="5752663.805955027" end_time="6:00"/>
			<act type="w" x="489281.35161926347" y="5783553.482505549" end_time="16:00"/>
			<act type="h" x="451476.1998115603" y="5744095.9895637045"/>
		</plan>
	</person>
	<person id="4">
		<plan>
			<act type="h" x="448660.78002167965" y="5769574.812497701" end_time="6:00"/>
			<act type="w" x="468208.5789012914" y="5754372.374974797" end_time="16:00"/>
			<act type="h" x="479270.08984933054" y="5732770.835024764"/>
		</plan>
	</person>
	<person id="5">
		<plan>
			<act type="h" x="487553.785704364" y="5786983.206343409" end_time="6:00"/>
			<act type="w" x="480290.4631170886" y="5714027.777913123" end_time="16:00"/>
			<act type="h" x="464375.0900745928" y="5758470.957870663"/>
		</plan>
	</person>
	<person id="6">
		<plan>
			<act type="h" x="470556.61233994545" y="5782476.200032513" end_time="6:00"/>
			<act type="w" x="478892.01611757925" y="5770553.656001322" end_time="16:00"/>
			<act type="h" x="498761.8247377351" y="5785153.176481367"/>
		</plan>
	</person>
	<person id="7">
		<plan>
			<act type="h" x="454055.86443248426" y="5745484.2135909945" end_time="6:00"/>
			<act type="w" x="480483.9207975685" y="5772185.361110453" end_time="16:00"/>
			<act type="h" x="481462.5832931184" y="5717935.033991658"/>
		</plan>
	</person>
	<person id="8">
		<plan>
			<act type="h" x="454055.86443248426" y="5745484.2135909945" end_time="6:00"/>
			<act type="w" x="481645.29792260315" y="5783878.21181985" end_time="16:00"/>
			<act type="h" x="479052.58807500714" y="5783463.5691556875"/>
		</plan>
	</person>
	<person id="9">
		<plan>
			<act type="h" x="473643.4562170071" y="5781158.393794496" end_time="6:00"/>
			<act type="w" x="489319.0811711937" y="5783546.471590158" end_time="16:00"/>
			<act type="h" x="474046.0528451278" y="5760486.001002393"/>
		</plan>
	</person>
</plans>